<?xml version="1.0" encoding="UTF-8"?>
<routes xmlns:xsi="http://www.w3.org/2001/XMLSchema-instance" xsi:noNamespaceSchemaLocation="http://sumo.dlr.de/xsd/routes_file.xsd">
    <vType id="car" length="5.0" minGap="2.5" maxSpeed="25" speedDev="0.1" accel="2.6" decel="4.5" sigma="0.5"/>
    <vType id="truck" length="12.0" minGap="2.5" maxSpeed="20" speedDev="0.1" accel="1.3" decel="4.0" sigma="0.5"/>
    <vType id="bus" length="15.0" minGap="3.0" maxSpeed="18" speedDev="0.1" accel="1.2" decel="4.0" sigma="0.5"/>
    
    <route id="route_0" edges="1"/>
    
    <flow id="flow_car" type="car" route="route_0" begin="0" end="3600" vehsPerHour="600"/>
    <flow id="flow_truck" type="truck" route="route_0" begin="0" end="3600" vehsPerHour="100"/>
    <flow id="flow_bus" type="bus" route="route_0" begin="0" end="3600" vehsPerHour="20"/>
</routes>