<?xml version="1.0" encoding="UTF-8"?>
<configuration>
    <input>
        <net-file value="traffic.net.xml"/>
        <route-files value="traffic.rou.xml"/>
    </input>
    <time>
        <begin value="0"/>
        <end value="3600"/>
        <step-length value="1.0"/>
    </time>
    <gui_only>
        <start value="true"/>
    </gui_only>
</configuration>