<?xml version="1.0" encoding="UTF-8"?>
<net version="1.9" xmlns:xsi="http://www.w3.org/2001/XMLSchema-instance" xsi:noNamespaceSchemaLocation="http://sumo.dlr.de/xsd/net_file.xsd">
 <location netOffset="0.00,0.00" convBoundary="0.00,0.00,200.00,200.00" origBoundary="-10000000000.00,-10000000000.00,10000000000.00,10000000000.00" projParameter="!"/>

    <!-- Define edges with lanes -->
    <edge id="1i" from="1" to="0" priority="78">
        <lane id="1i_0" index="0" speed="19.44" length="100.00" shape="0.00,98.40 100.00,98.40"/>
        <lane id="1i_1" index="1" speed="19.44" length="100.00" shape="0.00,101.60 100.00,101.60"/>
    </edge>
    
    <edge id="1o" from="0" to="1" priority="46">
        <lane id="1o_0" index="0" speed="19.44" length="100.00" shape="100.00,95.20 0.00,95.20"/>
        <lane id="1o_1" index="1" speed="19.44" length="100.00" shape="100.00,98.40 0.00,98.40"/>
    </edge>
    
    <edge id="2i" from="2" to="0" priority="78">
        <lane id="2i_0" index="0" speed="19.44" length="100.00" shape="200.00,101.60 100.00,101.60"/>
        <lane id="2i_1" index="1" speed="19.44" length="100.00" shape="200.00,98.40 100.00,98.40"/>
    </edge>
    
    <edge id="2o" from="0" to="2" priority="46">
        <lane id="2o_0" index="0" speed="19.44" length="100.00" shape="100.00,104.80 200.00,104.80"/>
        <lane id="2o_1" index="1" speed="19.44" length="100.00" shape="100.00,101.60 200.00,101.60"/>
    </edge>
    
    <edge id="3i" from="3" to="0" priority="78">
        <lane id="3i_0" index="0" speed="19.44" length="100.00" shape="101.60,0.00 101.60,100.00"/>
        <lane id="3i_1" index="1" speed="19.44" length="100.00" shape="98.40,0.00 98.40,100.00"/>
    </edge>
    
    <edge id="3o" from="0" to="3" priority="46">
        <lane id="3o_0" index="0" speed="19.44" length="100.00" shape="95.20,100.00 95.20,0.00"/>
        <lane id="3o_1" index="1" speed="19.44" length="100.00" shape="98.40,100.00 98.40,0.00"/>
    </edge>
    
    <edge id="4i" from="4" to="0" priority="78">
        <lane id="4i_0" index="0" speed="19.44" length="100.00" shape="98.40,200.00 98.40,100.00"/>
        <lane id="4i_1" index="1" speed="19.44" length="100.00" shape="101.60,200.00 101.60,100.00"/>
    </edge>
    
    <edge id="4o" from="0" to="4" priority="46">
        <lane id="4o_0" index="0" speed="19.44" length="100.00" shape="104.80,100.00 104.80,200.00"/>
        <lane id="4o_1" index="1" speed="19.44" length="100.00" shape="101.60,100.00 101.60,200.00"/>
    </edge>

    <!-- Define junctions -->
    <junction id="0" type="traffic_light" x="100.00" y="100.00" incLanes="1i_0 1i_1 2i_0 2i_1 3i_0 3i_1 4i_0 4i_1" intLanes="" shape="93.60,108.00 106.40,108.00 108.00,106.40 108.00,93.60 106.40,92.00 93.60,92.00 92.00,93.60 92.00,106.40"/>
    <junction id="1" type="priority" x="0.00" y="100.00" incLanes="1o_0 1o_1" intLanes="" shape="0.00,103.20 0.00,96.80"/>
    <junction id="2" type="priority" x="200.00" y="100.00" incLanes="2o_0 2o_1" intLanes="" shape="200.00,96.80 200.00,103.20"/>
    <junction id="3" type="priority" x="100.00" y="0.00" incLanes="3o_0 3o_1" intLanes="" shape="96.80,0.00 103.20,0.00"/>
    <junction id="4" type="priority" x="100.00" y="200.00" incLanes="4o_0 4o_1" intLanes="" shape="103.20,200.00 96.80,200.00"/>



    <!-- Define connections between lanes -->
    <connection from="1i" to="2o" fromLane="0" toLane="0" tl="0" linkIndex="0" dir="s" state="M"/>
    <connection from="1i" to="4o" fromLane="1" toLane="1" tl="0" linkIndex="1" dir="l" state="M"/>
    <connection from="2i" to="1o" fromLane="0" toLane="0" tl="0" linkIndex="2" dir="s" state="M"/>
    <connection from="2i" to="3o" fromLane="1" toLane="1" tl="0" linkIndex="3" dir="r" state="M"/>
    <connection from="3i" to="4o" fromLane="0" toLane="0" tl="0" linkIndex="4" dir="s" state="M"/>
    <connection from="3i" to="2o" fromLane="1" toLane="1" tl="0" linkIndex="5" dir="l" state="M"/>
    <connection from="4i" to="3o" fromLane="0" toLane="0" tl="0" linkIndex="6" dir="s" state="M"/>
    <connection from="4i" to="1o" fromLane="1" toLane="1" tl="0" linkIndex="7" dir="r" state="M"/>
</net>